matlab/psat/tests/d_009_fault_mdl_01.txt
POWER FLOW REPORT
 
P S A T  2.1.11
 
Author:  Federico Milano, (c) 2002-2019
e-mail:  federico.milano@ucd.ie
website: faraday1.ucd.ie/psat.html
 
File:  D:\matlab\psat\tests\d_009_fault_mdl
Date:  26-Oct-2024 12:08:00


NETWORK STATISTICS

Buses:                        9          
Lines:                        6          
Transformers:                 3          
Generators:                   3          
Loads:                        3          

SOLUTION STATISTICS

Number of Iterations:         4          
Maximum P mismatch [p.u.]     0          
Maximum Q mismatch [p.u.]     0          
Power rate [MVA]              100        

POWER FLOW RESULTS

Bus         V           phase       P gen       Q gen       P load      Q load      
            [p.u.]      [rad]       [p.u.]      [p.u.]      [p.u.]      [p.u.]      

Bus 1       1.04        0           0.71641     0.27046     0           0          
Bus 2       1.025       0.16197     1.63        0.06654     0           0          
Bus 3       1.025       0.08142     0.85       -0.1086      0           0          
Bus 4       1.0258     -0.03869     0           0           0           0          
Bus 5       0.99563    -0.06962     0           0           1.25        0.5        
Bus 6       1.0127     -0.06436     0           0           0.9         0.3        
Bus 7       1.0258      0.06492     0           0           0           0          
Bus 8       1.0159      0.0127      0           0           1           0.35       
Bus 9       1.0324      0.03433     0           0           0           0          

STATE VARIABLES

delta_Syn_1                   0.34438    
omega_Syn_1                   1          
delta_Syn_2                   0.2298     
omega_Syn_2                   1          
delta_Syn_3                   0.03965    
omega_Syn_3                   1          

OTHER ALGEBRAIC VARIABLES

vf_Syn_1                      1.0502     
pm_Syn_1                      1.63       
p_Syn_1                       1.63       
q_Syn_1                       0.06654    
vf_Syn_2                      1.017      
pm_Syn_2                      0.85       
p_Syn_2                       0.85       
q_Syn_2                      -0.1086     
vf_Syn_3                      1.0566     
pm_Syn_3                      0.71641    
p_Syn_3                       0.71641    
q_Syn_3                       0.27046    

LINE FLOWS

From Bus    To Bus      Line        P Flow      Q Flow      P Loss      Q Loss      
                                    [p.u.]      [p.u.]      [p.u.]      [p.u.]      

Bus 9       Bus 8       1           0.24183     0.0312      0.00088    -0.21176    
Bus 7       Bus 8       2           0.7638     -0.00797     0.00475    -0.11502    
Bus 9       Bus 6       3           0.60817    -0.18075     0.01354    -0.31531    
Bus 7       Bus 5       4           0.8662     -0.08381     0.023      -0.19694    
Bus 5       Bus 4       5          -0.4068     -0.38687     0.00258    -0.15794    
Bus 6       Bus 4       6          -0.30537    -0.16543     0.00166    -0.15513    
Bus 2       Bus 7       7           1.63        0.06654     0           0.15832    
Bus 3       Bus 9       8           0.85       -0.1086      0           0.04096    
Bus 1       Bus 4       9           0.71641     0.27046     0           0.03123    

LINE FLOWS

From Bus    To Bus      Line        P Flow      Q Flow      P Loss      Q Loss      
                                    [p.u.]      [p.u.]      [p.u.]      [p.u.]      

Bus 8       Bus 9       1          -0.24095    -0.24296     0.00088    -0.21176    
Bus 8       Bus 7       2          -0.75905    -0.10704     0.00475    -0.11502    
Bus 6       Bus 9       3          -0.59463    -0.13457     0.01354    -0.31531    
Bus 5       Bus 7       4          -0.8432     -0.11313     0.023      -0.19694    
Bus 4       Bus 5       5           0.40937     0.22893     0.00258    -0.15794    
Bus 4       Bus 6       6           0.30704     0.0103      0.00166    -0.15513    
Bus 7       Bus 2       7          -1.63        0.09178     0           0.15832    
Bus 9       Bus 3       8          -0.85        0.14955     0           0.04096    
Bus 4       Bus 1       9          -0.71641    -0.23923     0           0.03123    

GLOBAL SUMMARY REPORT


TOTAL GENERATION

REAL POWER [p.u.]             3.1964     
REACTIVE POWER [p.u.]         0.2284     

TOTAL LOAD

REAL POWER [p.u.]             3.15       
REACTIVE POWER [p.u.]         1.15       

TOTAL LOSSES

REAL POWER [p.u.]             0.04641    
REACTIVE POWER [p.u.]        -0.9216     

